Circuit: * M:\git\edv\models\powers.asc

Direct Newton iteration failed to find .op point.  (Use ".option noopiter" to skip.)
Starting Gmin stepping
Gmin = 10
Gmin = 1.07374
Gmin = 0.115292
Gmin = 0.0123794
Gmin = 0.00132923
Gmin = 0.000142725
Gmin = 1.5325e-005
Gmin = 1.6455e-006
Gmin = 1.76685e-007
Gmin = 1.89714e-008
Gmin = 2.03704e-009
Gmin = 2.18725e-010
Gmin = 2.34854e-011
Gmin = 2.52173e-012
Gmin = 2.70769e-013
Gmin = 0
Gmin stepping succeeded in finding the operating point.


Date: Sun Dec 23 16:32:34 2018
Total elapsed time: 9.235 seconds.

tnom = 27
temp = 27
method = modified trap
totiter = 765504
traniter = 765025
tranpoints = 234092
accept = 175223
rejected = 58869
matrix size = 57
fillins = 0
solver = Normal
Thread vector: 7.0/6.3[2] 3.9/3.6[1] 1.3/2.9[1] 0.2/1.0[1]  2592/500
Matrix Compiler1: 2.08 KB object code size  1.0/0.4/[0.3]
Matrix Compiler2: 3.62 KB object code size  0.6/0.7/[0.6]

