Circuit: * M:\git\edv\models\push-pull.asc

Instance "m:u3:2": Length shorter than recommended for a level 3 MOSFET.
Instance "m:u3:1": Length shorter than recommended for a level 3 MOSFET.
Direct Newton iteration failed to find .op point.  (Use ".option noopiter" to skip.)
Starting Gmin stepping
Gmin = 10
Gmin = 1.07374
Gmin = 0.115292
Gmin = 0.0123794
Gmin = 0.00132923
Gmin = 0.000142725
Gmin = 1.5325e-005
Gmin = 1.6455e-006
Gmin = 1.76685e-007
Gmin = 1.89714e-008
Gmin = 2.03704e-009
Gmin = 2.18725e-010
Gmin = 2.34854e-011
Gmin = 2.52173e-012
Gmin = 2.70769e-013
Gmin = 0
Gmin stepping succeeded in finding the operating point.

Heightened Def Con from 0.000118931 to 0.000118937
Heightened Def Con from 0.000119018 to 0.000119027
Heightened Def Con from 0.000121132 to 0.000121137
Heightened Def Con from 0.000121137 to 0.00012114
Heightened Def Con from 0.000121221 to 0.00012123
Heightened Def Con from 0.000123332 to 0.000123337
Heightened Def Con from 0.000123419 to 0.000123427
Heightened Def Con from 0.000125536 to 0.000125541
Heightened Def Con from 0.000127739 to 0.000127743
Heightened Def Con from 0.000134298 to 0.000134301
Heightened Def Con from 0.001 to 0.001
Heightened Def Con from 0.00100002 to 0.00100003
Heightened Def Con from 0.00101 to 0.00101
Heightened Def Con from 0.00101002 to 0.00101003
Heightened Def Con from 0.00102 to 0.00102
Heightened Def Con from 0.00102002 to 0.00102002
Heightened Def Con from 0.00102224 +to 0.00102224
Heightened Def Con from 0.00102224 to 0.00102224
Heightened Def Con from 0.00102224 to 0.00102224
Heightened Def Con from 0.00102224 to 0.00102224
Heightened Def Con from 0.00102224 to 0.00102225
Heightened Def Con from 0.00103 to 0.00103
Heightened Def Con from 0.00104 to 0.00104
Heightened Def Con from 0.00104002 to 0.00104003
Heightened Def Con from 0.00105 to 0.00105
Heightened Def Con from 0.00105002 to 0.00105003
Heightened Def Con from 0.00106002 to 0.00106003
Heightened Def Con from 0.00107 to 0.00107
Heightened Def Con from 0.00107002 to 0.00107003
Heightened Def Con from 0.00108 to 0.00108
Heightened Def Con from 0.00108002 to 0.00108002
Heightened Def Con from 0.00109 to 0.00109
Heightened Def Con from 0.00110002 to 0.00110003
Heightened Def Con from 0.00111002 to 0.00111003
Heightened Def Con from 0.00112002 to 0.00112002
Heightened Def Con from 0.00113 to 0.00113
Heightened Def Con from 0.00113002 to 0.00113003
Heightened Def Con from 0.00114 to 0.00114
Heightened Def Con from 0.00114002 to 0.00114003
Heightened Def Con from 0.00114223 to 0.00114223
Heightened Def Con from 0.00114224 to 0.00114224
Heightened Def Con from 0.00114224 to 0.00114224
Heightened Def Con from 0.00114224 to 0.00114224
Heightened Def Con from 0.00115 to 0.00115
Heightened Def Con from 0.00115002 to 0.00115003
Heightened Def Con from 0.00116 to 0.00116
Heightened Def Con from 0.00116002 to 0.00116003
Heightened Def Con from 0.00116273 to 0.00116273

Date: Sun Jan 13 00:44:46 2019
Total elapsed time: 9.560 seconds.

tnom = 27
temp = 27
method = modified trap
totiter = 348201
traniter = 347692
tranpoints = 139667
accept = 95918
rejected = 43798
matrix size = 100
fillins = 43
solver = Normal
Matrix Compiler1: 7.70 KB object code size  2.9/1.2/[0.8]
Matrix Compiler2: 7.78 KB object code size  1.3/3.8/[0.8]

