Circuit: * M:\git\edv\models\push-pull.asc

Direct Newton iteration failed to find .op point.  (Use ".option noopiter" to skip.)
Starting Gmin stepping
Gmin = 10
Gmin = 1.07374
Gmin = 0.115292
Gmin = 0.0123794
Gmin = 0.00132923
Gmin = 0.000142725
Gmin = 1.5325e-005
Gmin = 1.6455e-006
Gmin = 1.76685e-007
Gmin = 1.89714e-008
Gmin = 2.03704e-009
Gmin = 2.18725e-010
Gmin = 2.34854e-011
Gmin = 2.52173e-012
Gmin = 2.70769e-013
Gmin = 0
Gmin stepping succeeded in finding the operating point.


Date: Sat Jan 12 14:22:05 2019
Total elapsed time: 18.103 seconds.

tnom = 27
temp = 27
method = modified trap
totiter = 750792
traniter = 750284
tranpoints = 253947
accept = 173990
rejected = 79957
matrix size = 90
fillins = 33
solver = Normal
Thread vector: 15.2/12.9[2] 6.0/5.4[2] 2.3/8.9[1] 0.4/1.3[1]  2592/500
Matrix Compiler1: 7.01 KB object code size  2.9/1.0/[0.7]
Matrix Compiler2: 7.13 KB object code size  1.7/1.6/[0.8]

